

 ****************************** EPMacro processing begun.


 KRDRD  --> kardi1=   1  KARDI2= 501 KARDX= 502  mTxtP=     0  mStk=     0
      *   1 * !-Generator IDFEditor 1.50
 KRDRD  <-3-  KARDI1=   1  KARDI2=  27  KARDX=   1  KRDNUM=   1 mTxtP =     0  mP=     0  mStk=     0
            .2345678.1.2345678.2.2345678.3.2345678.4.2345678.5.2345678.6.2345678.7.2345678.8.2345678.9.2345678.0
            !-Generator IDFEditor 1.50 
 KRDRD  --> kardi1=   1  KARDI2=  27 KARDX=  28  mTxtP=     0  mStk=     0
      *   2 * !-Option SortedOrder
 KRDRD  <-3-  KARDI1=   1  KARDI2=  21  KARDX=   1  KRDNUM=   2 mTxtP =     0  mP=     0  mStk=     0
            .2345678.1.2345678.2.2345678.3.2345678.4.2345678.5.2345678.6.2345678.7.2345678.8.2345678.9.2345678.0
            !-Option SortedOrder 
 KRDRD  --> kardi1=   1  KARDI2=  21 KARDX=  22  mTxtP=     0  mStk=     0
      *   3 *
 KRDRD  <-3-  KARDI1=   1  KARDI2=   1  KARDX=   1  KRDNUM=   3 mTxtP =     0  mP=     0  mStk=     0
            .2345678.1.2345678.2.2345678.3.2345678.4.2345678.5.2345678.6.2345678.7.2345678.8.2345678.9.2345678.0
             
 KRDRD  --> kardi1=   1  KARDI2=   1 KARDX=   2  mTxtP=     0  mStk=     0
      *   4 * !-NOTE: All comments with '!-' are ignored by the IDFEditor and are generated automatically.
 KRDRD  <-3-  KARDI1=   1  KARDI2=  93  KARDX=   1  KRDNUM=   4 mTxtP =     0  mP=     0  mStk=     0
            .2345678.1.2345678.2.2345678.3.2345678.4.2345678.5.2345678.6.2345678.7.2345678.8.2345678.9.2345678.0
            !-NOTE: All comments with '!-' are ignored by the IDFEditor and are generated automatically. 
 KRDRD  --> kardi1=   1  KARDI2=  93 KARDX=  94  mTxtP=     0  mStk=     0
      *   5 * !-      Use '!' comments if they need to be retained when using the IDFEditor.
 KRDRD  <-3-  KARDI1=   1  KARDI2=  79  KARDX=   1  KRDNUM=   5 mTxtP =     0  mP=     0  mStk=     0
            .2345678.1.2345678.2.2345678.3.2345678.4.2345678.5.2345678.6.2345678.7.2345678.8.2345678.9.2345678.0
            !-      Use '!' comments if they need to be retained when using the IDFEditor. 
 KRDRD  --> kardi1=   1  KARDI2=  79 KARDX=  80  mTxtP=     0  mStk=     0
      *   6 *
 KRDRD  <-3-  KARDI1=   1  KARDI2=   1  KARDX=   1  KRDNUM=   6 mTxtP =     0  mP=     0  mStk=     0
            .2345678.1.2345678.2.2345678.3.2345678.4.2345678.5.2345678.6.2345678.7.2345678.8.2345678.9.2345678.0
             
 KRDRD  --> kardi1=   1  KARDI2=   1 KARDX=   2  mTxtP=     0  mStk=     0
      *   7 *
 KRDRD  <-3-  KARDI1=   1  KARDI2=   1  KARDX=   1  KRDNUM=   7 mTxtP =     0  mP=     0  mStk=     0
            .2345678.1.2345678.2.2345678.3.2345678.4.2345678.5.2345678.6.2345678.7.2345678.8.2345678.9.2345678.0
             
 KRDRD  --> kardi1=   1  KARDI2=   1 KARDX=   2  mTxtP=     0  mStk=     0
      *   8 * !-   ===========  ALL OBJECTS IN CLASS: VERSION ===========
 KRDRD  <-3-  KARDI1=   1  KARDI2=  60  KARDX=   1  KRDNUM=   8 mTxtP =     0  mP=     0  mStk=     0
            .2345678.1.2345678.2.2345678.3.2345678.4.2345678.5.2345678.6.2345678.7.2345678.8.2345678.9.2345678.0
            !-   ===========  ALL OBJECTS IN CLASS: VERSION =========== 
 KRDRD  --> kardi1=   1  KARDI2=  60 KARDX=  61  mTxtP=     0  mStk=     0
      *   9 *
 KRDRD  <-3-  KARDI1=   1  KARDI2=   1  KARDX=   1  KRDNUM=   9 mTxtP =     0  mP=     0  mStk=     0
            .2345678.1.2345678.2.2345678.3.2345678.4.2345678.5.2345678.6.2345678.7.2345678.8.2345678.9.2345678.0
             
 KRDRD  --> kardi1=   1  KARDI2=   1 KARDX=   2  mTxtP=     0  mStk=     0
      *  10 * ! This IDF data has been post-processed by DesignBuilder to modify Compact HVAC data
 KRDRD  <-3-  KARDI1=   1  KARDI2=  85  KARDX=   1  KRDNUM=  10 mTxtP =     0  mP=     0  mStk=     0
            .2345678.1.2345678.2.2345678.3.2345678.4.2345678.5.2345678.6.2345678.7.2345678.8.2345678.9.2345678.0
            ! This IDF data has been post-processed by DesignBuilder to modify Compact HVAC data 
 KRDRD  --> kardi1=   1  KARDI2=  85 KARDX=  86  mTxtP=     0  mStk=     0
      *  11 * ! You can find the original unmodified IDF data in Compact.idf in the same EnergyPlus folder
 KRDRD  <-3-  KARDI1=   1  KARDI2=  93  KARDX=   1  KRDNUM=  11 mTxtP =     0  mP=     0  mStk=     0
            .2345678.1.2345678.2.2345678.3.2345678.4.2345678.5.2345678.6.2345678.7.2345678.8.2345678.9.2345678.0
            ! You can find the original unmodified IDF data in Compact.idf in the same EnergyPlus folder 
 KRDRD  --> kardi1=   1  KARDI2=  93 KARDX=  94  mTxtP=     0  mStk=     0
      *  12 * ! Version Identifier
 KRDRD  <-3-  KARDI1=   1  KARDI2=  21  KARDX=   1  KRDNUM=  12 mTxtP =     0  mP=     0  mStk=     0
            .2345678.1.2345678.2.2345678.3.2345678.4.2345678.5.2345678.6.2345678.7.2345678.8.2345678.9.2345678.0
            ! Version Identifier 
 KRDRD  --> kardi1=   1  KARDI2=  21 KARDX=  22  mTxtP=     0  mStk=     0
      *  13 * Version,
 KRDRD  <-3-  KARDI1=   1  KARDI2=   9  KARDX=   1  KRDNUM=  13 mTxtP =     0  mP=     0  mStk=     0
            .2345678.1.2345678.2.2345678.3.2345678.4.2345678.5.2345678.6.2345678.7.2345678.8.2345678.9.2345678.0
            Version, 
 KRDRD  --> kardi1=   1  KARDI2=   9 KARDX=  10  mTxtP=     0  mStk=     0
      *  14 *     8.8.0;                   !- Version Identifier
 KRDRD  <-3-  KARDI1=   1  KARDI2=  51  KARDX=   1  KRDNUM=  14 mTxtP =     0  mP=     0  mStk=     0
            .2345678.1.2345678.2.2345678.3.2345678.4.2345678.5.2345678.6.2345678.7.2345678.8.2345678.9.2345678.0
                8.8.0;                   !- Version Identifier 
 KRDRD  --> kardi1=   1  KARDI2=  51 KARDX=  52  mTxtP=     0  mStk=     0
      *  15 *
 KRDRD  <-3-  KARDI1=   1  KARDI2=   1  KARDX=   1  KRDNUM=  15 mTxtP =     0  mP=     0  mStk=     0
            .2345678.1.2345678.2.2345678.3.2345678.4.2345678.5.2345678.6.2345678.7.2345678.8.2345678.9.2345678.0
             
 KRDRD  --> kardi1=   1  KARDI2=   1 KARDX=   2  mTxtP=     0  mStk=     0
      *  16 *
 KRDRD  <-3-  KARDI1=   1  KARDI2=   1  KARDX=   1  KRDNUM=  16 mTxtP =     0  mP=     0  mStk=     0
            .2345678.1.2345678.2.2345678.3.2345678.4.2345678.5.2345678.6.2345678.7.2345678.8.2345678.9.2345678.0
             
 KRDRD  --> kardi1=   1  KARDI2=   1 KARDX=   2  mTxtP=     0  mStk=     0
      *  17 * !-   ===========  ALL OBJECTS IN CLASS: SIMULATIONCONTROL ===========
 KRDRD  <-3-  KARDI1=   1  KARDI2=  70  KARDX=   1  KRDNUM=  17 mTxtP =     0  mP=     0  mStk=     0
            .2345678.1.2345678.2.2345678.3.2345678.4.2345678.5.2345678.6.2345678.7.2345678.8.2345678.9.2345678.0
            !-   ===========  ALL OBJECTS IN CLASS: SIMULATIONCONTROL =========== 
 KRDRD  --> kardi1=   1  KARDI2=  70 KARDX=  71  mTxtP=     0  mStk=     0
      *  18 *
 KRDRD  <-3-  KARDI1=   1  KARDI2=   1  KARDX=   1  KRDNUM=  18 mTxtP =     0  mP=     0  mStk=     0
            .2345678.1.2345678.2.2345678.3.2345678.4.2345678.5.2345678.6.2345678.7.2345678.8.2345678.9.2345678.0
             
 KRDRD  --> kardi1=   1  KARDI2=   1 KARDX=   2  mTxtP=     0  mStk=     0
      *  19 * ! Do Zone Sizing Calculation
 KRDRD  <-3-  KARDI1=   1  KARDI2=  29  KARDX=   1  KRDNUM=  19 mTxtP =     0  mP=     0  mStk=     0
            .2345678.1.2345678.2.2345678.3.2345678.4.2345678.5.2345678.6.2345678.7.2345678.8.2345678.9.2345678.0
            ! Do Zone Sizing Calculation 
 KRDRD  --> kardi1=   1  KARDI2=  29 KARDX=  30  mTxtP=     0  mStk=     0
      *  20 * ! Do System Sizing Calculation
 KRDRD  <-3-  KARDI1=   1  KARDI2=  31  KARDX=   1  KRDNUM=  20 mTxtP =     0  mP=     0  mStk=     0
            .2345678.1.2345678.2.2345678.3.2345678.4.2345678.5.2345678.6.2345678.7.2345678.8.2345678.9.2345678.0
            ! Do System Sizing Calculation 
 KRDRD  --> kardi1=   1  KARDI2=  31 KARDX=  32  mTxtP=     0  mStk=     0
      *  21 * ! Do Plant Sizing Calculation
 KRDRD  <-3-  KARDI1=   1  KARDI2=  30  KARDX=   1  KRDNUM=  21 mTxtP =     0  mP=     0  mStk=     0
            .2345678.1.2345678.2.2345678.3.2345678.4.2345678.5.2345678.6.2345678.7.2345678.8.2345678.9.2345678.0
            ! Do Plant Sizing Calculation 
 KRDRD  --> kardi1=   1  KARDI2=  30 KARDX=  31  mTxtP=     0  mStk=     0
      *  22 * ! Run Simulation for Sizing Periods
 KRDRD  <-3-  KARDI1=   1  KARDI2=  36  KARDX=   1  KRDNUM=  22 mTxtP =     0  mP=     0  mStk=     0
            .2345678.1.2345678.2.2345678.3.2345678.4.2345678.5.2345678.6.2345678.7.2345678.8.2345678.9.2345678.0
            ! Run Simulation for Sizing Periods 
 KRDRD  --> kardi1=   1  KARDI2=  36 KARDX=  37  mTxtP=     0  mStk=     0
      *  23 * ! Run Simulation for Weather File Run Periods
 KRDRD  <-3-  KARDI1=   1  KARDI2=  46  KARDX=   1  KRDNUM=  23 mTxtP =     0  mP=     0  mStk=     0
            .2345678.1.2345678.2.2345678.3.2345678.4.2345678.5.2345678.6.2345678.7.2345678.8.2345678.9.2345678.0
            ! Run Simulation for Weather File Run Periods 
 KRDRD  --> kardi1=   1  KARDI2=  46 KARDX=  47  mTxtP=     0  mStk=     0
      *  24 * SimulationControl,
 KRDRD  <-3-  KARDI1=   1  KARDI2=  19  KARDX=   1  KRDNUM=  24 mTxtP =     0  mP=     0  mStk=     0
            .2345678.1.2345678.2.2345678.3.2345678.4.2345678.5.2345678.6.2345678.7.2345678.8.2345678.9.2345678.0
            SimulationControl, 
 KRDRD  --> kardi1=   1  KARDI2=  19 KARDX=  20  mTxtP=     0  mStk=     0
      *  25 *     Yes,                     !- Do Zone Sizing Calculation
 KRDRD  <-3-  KARDI1=   1  KARDI2=  59  KARDX=   1  KRDNUM=  25 mTxtP =     0  mP=     0  mStk=     0
            .2345678.1.2345678.2.2345678.3.2345678.4.2345678.5.2345678.6.2345678.7.2345678.8.2345678.9.2345678.0
                Yes,                     !- Do Zone Sizing Calculation 
 KRDRD  --> kardi1=   1  KARDI2=  59 KARDX=  60  mTxtP=     0  mStk=     0
      *  26 *     Yes,                     !- Do System Sizing Calculation
 KRDRD  <-3-  KARDI1=   1  KARDI2=  61  KARDX=   1  KRDNUM=  26 mTxtP =     0  mP=     0  mStk=     0
            .2345678.1.2345678.2.2345678.3.2345678.4.2345678.5.2345678.6.2345678.7.2345678.8.2345678.9.2345678.0
                Yes,                     !- Do System Sizing Calculation 
 KRDRD  --> kardi1=   1  KARDI2=  61 KARDX=  62  mTxtP=     0  mStk=     0
      *  27 *     No,                      !- Do Plant Sizing Calculation
 KRDRD  <-3-  KARDI1=   1  KARDI2=  60  KARDX=   1  KRDNUM=  27 mTxtP =     0  mP=     0  mStk=     0
            .2345678.1.2345678.2.2345678.3.2345678.4.2345678.5.2345678.6.2345678.7.2345678.8.2345678.9.2345678.0
                No,                      !- Do Plant Sizing Calculation 
 KRDRD  --> kardi1=   1  KARDI2=  60 KARDX=  61  mTxtP=     0  mStk=     0
      *  28 *     No,                      !- Run Simulation for Sizing Periods
 KRDRD  <-3-  KARDI1=   1  KARDI2=  66  KARDX=   1  KRDNUM=  28 mTxtP =     0  mP=     0  mStk=     0
            .2345678.1.2345678.2.2345678.3.2345678.4.2345678.5.2345678.6.2345678.7.2345678.8.2345678.9.2345678.0
                No,                      !- Run Simulation for Sizing Periods 
 KRDRD  --> kardi1=   1  KARDI2=  66 KARDX=  67  mTxtP=     0  mStk=     0
      *  29 *     Yes,                     !- Run Simulation for Weather File Run Periods
 KRDRD  <-3-  KARDI1=   1  KARDI2=  76  KARDX=   1  KRDNUM=  29 mTxtP =     0  mP=     0  mStk=     0
            .2345678.1.2345678.2.2345678.3.2345678.4.2345678.5.2345678.6.2345678.7.2345678.8.2345678.9.2345678.0
                Yes,                     !- Run Simulation for Weather File Run Periods 
 KRDRD  --> kardi1=   1  KARDI2=  76 KARDX=  77  mTxtP=     0  mStk=     0
      *  30 *     Yes;                     !- Do HVAC Sizing Simulation for Sizing Periods
 KRDRD  <-3-  KARDI1=   1  KARDI2=  77  KARDX=   1  KRDNUM=  30 mTxtP =     0  mP=     0  mStk=     0
            .2345678.1.2345678.2.2345678.3.2345678.4.2345678.5.2345678.6.2345678.7.2345678.8.2345678.9.2345678.0
                Yes;                     !- Do HVAC Sizing Simulation for Sizing Periods 
 KRDRD  --> kardi1=   1  KARDI2=  77 KARDX=  78  mTxtP=     0  mStk=     0
      *  31 *
 KRDRD  <-3-  KARDI1=   1  KARDI2=   1  KARDX=   1  KRDNUM=  31 mTxtP =     0  mP=     0  mStk=     0
            .2345678.1.2345678.2.2345678.3.2345678.4.2345678.5.2345678.6.2345678.7.2345678.8.2345678.9.2345678.0
             
 KRDRD  --> kardi1=   1  KARDI2=   1 KARDX=   2  mTxtP=     0  mStk=     0
      *  32 *
 KRDRD  <-3-  KARDI1=   1  KARDI2=   1  KARDX=   1  KRDNUM=  32 mTxtP =     0  mP=     0  mStk=     0
            .2345678.1.2345678.2.2345678.3.2345678.4.2345678.5.2345678.6.2345678.7.2345678.8.2345678.9.2345678.0
             
 KRDRD  --> kardi1=   1  KARDI2=   1 KARDX=   2  mTxtP=     0  mStk=     0
      *  33 * !-   ===========  ALL OBJECTS IN CLASS: BUILDING ===========
 KRDRD  <-3-  KARDI1=   1  KARDI2=  61  KARDX=   1  KRDNUM=  33 mTxtP =     0  mP=     0  mStk=     0
            .2345678.1.2345678.2.2345678.3.2345678.4.2345678.5.2345678.6.2345678.7.2345678.8.2345678.9.2345678.0
            !-   ===========  ALL OBJECTS IN CLASS: BUILDING =========== 
 KRDRD  --> kardi1=   1  KARDI2=  61 KARDX=  62  mTxtP=     0  mStk=     0
      *  34 *
 KRDRD  <-3-  KARDI1=   1  KARDI2=   1  KARDX=   1  KRDNUM=  34 mTxtP =     0  mP=     0  mStk=     0
            .2345678.1.2345678.2.2345678.3.2345678.4.2345678.5.2345678.6.2345678.7.2345678.8.2345678.9.2345678.0
             
 KRDRD  --> kardi1=   1  KARDI2=   1 KARDX=   2  mTxtP=     0  mStk=     0
      *  35 * ! Name
 KRDRD  <-3-  KARDI1=   1  KARDI2=   7  KARDX=   1  KRDNUM=  35 mTxtP =     0  mP=     0  mStk=     0
            .2345678.1.2345678.2.2345678.3.2345678.4.2345678.5.2345678.6.2345678.7.2345678.8.2345678.9.2345678.0
            ! Name 
 KRDRD  --> kardi1=   1  KARDI2=   7 KARDX=   8  mTxtP=     0  mStk=     0
      *  36 * ! North Axis (deg)
 KRDRD  <-3-  KARDI1=   1  KARDI2=  19  KARDX=   1  KRDNUM=  36 mTxtP =     0  mP=     0  mStk=     0
            .2345678.1.2345678.2.2345678.3.2345678.4.2345678.5.2345678.6.2345678.7.2345678.8.2345678.9.2345678.0
            ! North Axis (deg) 
 KRDRD  --> kardi1=   1  KARDI2=  19 KARDX=  20  mTxtP=     0  mStk=     0
      *  37 * ! Terrain
 KRDRD  <-3-  KARDI1=   1  KARDI2=  10  KARDX=   1  KRDNUM=  37 mTxtP =     0  mP=     0  mStk=     0
            .2345678.1.2345678.2.2345678.3.2345678.4.2345678.5.2345678.6.2345678.7.2345678.8.2345678.9.2345678.0
            ! Terrain 
 KRDRD  --> kardi1=   1  KARDI2=  10 KARDX=  11  mTxtP=     0  mStk=     0
      *  38 * ! Loads Convergence Tolerance Value
 KRDRD  <-3-  KARDI1=   1  KARDI2=  36  KARDX=   1  KRDNUM=  38 mTxtP =     0  mP=     0  mStk=     0
            .2345678.1.2345678.2.2345678.3.2345678.4.2345678.5.2345678.6.2345678.7.2345678.8.2345678.9.2345678.0
            ! Loads Convergence Tolerance Value 
 KRDRD  --> kardi1=   1  KARDI2=  36 KARDX=  37  mTxtP=     0  mStk=     0
      *  39 * ! Temperature Convergence Tolerance Value (deltaC)
 KRDRD  <-3-  KARDI1=   1  KARDI2=  51  KARDX=   1  KRDNUM=  39 mTxtP =     0  mP=     0  mStk=     0
            .2345678.1.2345678.2.2345678.3.2345678.4.2345678.5.2345678.6.2345678.7.2345678.8.2345678.9.2345678.0
            ! Temperature Convergence Tolerance Value (deltaC) 
 KRDRD  --> kardi1=   1  KARDI2=  51 KARDX=  52  mTxtP=     0  mStk=     0
      *  40 * ! Solar Distribution
 KRDRD  <-3-  KARDI1=   1  KARDI2=  21  KARDX=   1  KRDNUM=  40 mTxtP =     0  mP=     0  mStk=     0
            .2345678.1.2345678.2.2345678.3.2345678.4.2345678.5.2345678.6.2345678.7.2345678.8.2345678.9.2345678.0
            ! Solar Distribution 
 KRDRD  --> kardi1=   1  KARDI2=  21 KARDX=  22  mTxtP=     0  mStk=     0
      *  41 * ! Maximum Number of Warmup Days
 KRDRD  <-3-  KARDI1=   1  KARDI2=  32  KARDX=   1  KRDNUM=  41 mTxtP =     0  mP=     0  mStk=     0
            .2345678.1.2345678.2.2345678.3.2345678.4.2345678.5.2345678.6.2345678.7.2345678.8.2345678.9.2345678.0
            ! Maximum Number of Warmup Days 
 KRDRD  --> kardi1=   1  KARDI2=  32 KARDX=  33  mTxtP=     0  mStk=     0
      *  42 * ! Minimum Number of Warmup Days
 KRDRD  <-3-  KARDI1=   1  KARDI2=  32  KARDX=   1  KRDNUM=  42 mTxtP =     0  mP=     0  mStk=     0
            .2345678.1.2345678.2.2345678.3.2345678.4.2345678.5.2345678.6.2345678.7.2345678.8.2345678.9.2345678.0
            ! Minimum Number of Warmup Days 
 KRDRD  --> kardi1=   1  KARDI2=  32 KARDX=  33  mTxtP=     0  mStk=     0
      *  43 * Building,
 KRDRD  <-3-  KARDI1=   1  KARDI2=  10  KARDX=   1  KRDNUM=  43 mTxtP =     0  mP=     0  mStk=     0
            .2345678.1.2345678.2.2345678.3.2345678.4.2345678.5.2345678.6.2345678.7.2345678.8.2345678.9.2345678.0
            Building, 
 KRDRD  --> kardi1=   1  KARDI2=  10 KARDX=  11  mTxtP=     0  mStk=     0
      *  44 *     Building,                !- Name
 KRDRD  <-3-  KARDI1=   1  KARDI2=  37  KARDX=   1  KRDNUM=  44 mTxtP =     0  mP=     0  mStk=     0
            .2345678.1.2345678.2.2345678.3.2345678.4.2345678.5.2345678.6.2345678.7.2345678.8.2345678.9.2345678.0
                Building,                !- Name 
 KRDRD  --> kardi1=   1  KARDI2=  37 KARDX=  38  mTxtP=     0  mStk=     0
      *  45 *     90,                       !- North Axis {deg}
 KRDRD  <-3-  KARDI1=   1  KARDI2=  50  KARDX=   1  KRDNUM=  45 mTxtP =     0  mP=     0  mStk=     0
            .2345678.1.2345678.2.2345678.3.2345678.4.2345678.5.2345678.6.2345678.7.2345678.8.2345678.9.2345678.0
                90,                       !- North Axis {deg} 
 KRDRD  --> kardi1=   1  KARDI2=  50 KARDX=  51  mTxtP=     0  mStk=     0
      *  46 *     Suburbs,                 !- Terrain
 KRDRD  <-3-  KARDI1=   1  KARDI2=  40  KARDX=   1  KRDNUM=  46 mTxtP =     0  mP=     0  mStk=     0
            .2345678.1.2345678.2.2345678.3.2345678.4.2345678.5.2345678.6.2345678.7.2345678.8.2345678.9.2345678.0
                Suburbs,                 !- Terrain 
 KRDRD  --> kardi1=   1  KARDI2=  40 KARDX=  41  mTxtP=     0  mStk=     0
      *  47 *     0.04,                    !- Loads Convergence Tolerance Value
 KRDRD  <-3-  KARDI1=   1  KARDI2=  66  KARDX=   1  KRDNUM=  47 mTxtP =     0  mP=     0  mStk=     0
            .2345678.1.2345678.2.2345678.3.2345678.4.2345678.5.2345678.6.2345678.7.2345678.8.2345678.9.2345678.0
                0.04,                    !- Loads Convergence Tolerance Value 
 KRDRD  --> kardi1=   1  KARDI2=  66 KARDX=  67  mTxtP=     0  mStk=     0
      *  48 *     0.4,                     !- Temperature Convergence Tolerance Value {deltaC}
 KRDRD  <-3-  KARDI1=   1  KARDI2=  81  KARDX=   1  KRDNUM=  48 mTxtP =     0  mP=     0  mStk=     0
            .2345678.1.2345678.2.2345678.3.2345678.4.2345678.5.2345678.6.2345678.7.2345678.8.2345678.9.2345678.0
                0.4,                     !- Temperature Convergence Tolerance Value {deltaC} 
 KRDRD  --> kardi1=   1  KARDI2=  81 KARDX=  82  mTxtP=     0  mStk=     0
      *  49 *     FullExterior,            !- Solar Distribution
 KRDRD  <-3-  KARDI1=   1  KARDI2=  51  KARDX=   1  KRDNUM=  49 mTxtP =     0  mP=     0  mStk=     0
            .2345678.1.2345678.2.2345678.3.2345678.4.2345678.5.2345678.6.2345678.7.2345678.8.2345678.9.2345678.0
                FullExterior,            !- Solar Distribution 
 KRDRD  --> kardi1=   1  KARDI2=  51 KARDX=  52  mTxtP=     0  mStk=     0
      *  50 *     25,                      !- Maximum Number of Warmup Days
 KRDRD  <-3-  KARDI1=   1  KARDI2=  62  KARDX=   1  KRDNUM=  50 mTxtP =     0  mP=     0  mStk=     0
            .2345678.1.2345678.2.2345678.3.2345678.4.2345678.5.2345678.6.2345678.7.2345678.8.2345678.9.2345678.0
                25,                      !- Maximum Number of Warmup Days 
 KRDRD  --> kardi1=   1  KARDI2=  62 KARDX=  63  mTxtP=     0  mStk=     0
      *  51 *     6;                       !- Minimum Number of Warmup Days
 KRDRD  <-3-  KARDI1=   1  KARDI2=  62  KARDX=   1  KRDNUM=  51 mTxtP =     0  mP=     0  mStk=     0
            .2345678.1.2345678.2.2345678.3.2345678.4.2345678.5.2345678.6.2345678.7.2345678.8.2345678.9.2345678.0
                6;                       !- Minimum Number of Warmup Days 
 KRDRD  --> kardi1=   1  KARDI2=  62 KARDX=  63  mTxtP=     0  mStk=     0
      *  52 *
 KRDRD  <-3-  KARDI1=   1  KARDI2=   1  KARDX=   1  KRDNUM=  52 mTxtP =     0  mP=     0  mStk=     0
            .2345678.1.2345678.2.2345678.3.2345678.4.2345678.5.2345678.6.2345678.7.2345678.8.2345678.9.2345678.0
             
 KRDRD  --> kardi1=   1  KARDI2=   1 KARDX=   2  mTxtP=     0  mStk=     0
      *  53 *
 KRDRD  <-3-  KARDI1=   1  KARDI2=   1  KARDX=   1  KRDNUM=  53 mTxtP =     0  mP=     0  mStk=     0
            .2345678.1.2345678.2.2345678.3.2345678.4.2345678.5.2345678.6.2345678.7.2345678.8.2345678.9.2345678.0
             
 KRDRD  --> kardi1=   1  KARDI2=   1 KARDX=   2  mTxtP=     0  mStk=     0
      *  54 * !-   ===========  ALL OBJECTS IN CLASS: SHADOWCALCULATION ===========
 KRDRD  <-3-  KARDI1=   1  KARDI2=  70  KARDX=   1  KRDNUM=  54 mTxtP =     0  mP=     0  mStk=     0
            .2345678.1.2345678.2.2345678.3.2345678.4.2345678.5.2345678.6.2345678.7.2345678.8.2345678.9.2345678.0
            !-   ===========  ALL OBJECTS IN CLASS: SHADOWCALCULATION =========== 
 KRDRD  --> kardi1=   1  KARDI2=  70 KARDX=  71  mTxtP=     0  mStk=     0
      *  55 *
 KRDRD  <-3-  KARDI1=   1  KARDI2=   1  KARDX=   1  KRDNUM=  55 mTxtP =     0  mP=     0  mStk=     0
            .2345678.1.2345678.2.2345678.3.2345678.4.2345678.5.2345678.6.2345678.7.2345678.8.2345678.9.2345678.0
             
 KRDRD  --> kardi1=   1  KARDI2=   1 KARDX=   2  mTxtP=     0  mStk=     0
      *  56 * ! Calculation Method
 KRDRD  <-3-  KARDI1=   1  KARDI2=  21  KARDX=   1  KRDNUM=  56 mTxtP =     0  mP=     0  mStk=     0
            .2345678.1.2345678.2.2345678.3.2345678.4.2345678.5.2345678.6.2345678.7.2345678.8.2345678.9.2345678.0
            ! Calculation Method 
 KRDRD  --> kardi1=   1  KARDI2=  21 KARDX=  22  mTxtP=     0  mStk=     0
      *  57 * ! Calculation Frequency
 KRDRD  <-3-  KARDI1=   1  KARDI2=  24  KARDX=   1  KRDNUM=  57 mTxtP =     0  mP=     0  mStk=     0
            .2345678.1.2345678.2.2345678.3.2345678.4.2345678.5.2345678.6.2345678.7.2345678.8.2345678.9.2345678.0
            ! Calculation Frequency 
 KRDRD  --> kardi1=   1  KARDI2=  24 KARDX=  25  mTxtP=     0  mStk=     0
      *  58 * ! Maximum Figures in Shadow Overlap Calculations
 KRDRD  <-3-  KARDI1=   1  KARDI2=  49  KARDX=   1  KRDNUM=  58 mTxtP =     0  mP=     0  mStk=     0
            .2345678.1.2345678.2.2345678.3.2345678.4.2345678.5.2345678.6.2345678.7.2345678.8.2345678.9.2345678.0
            ! Maximum Figures in Shadow Overlap Calculations 
 KRDRD  --> kardi1=   1  KARDI2=  49 KARDX=  50  mTxtP=     0  mStk=     0
      *  59 * ! Polygon Clipping Algorithm
 KRDRD  <-3-  KARDI1=   1  KARDI2=  29  KARDX=   1  KRDNUM=  59 mTxtP =     0  mP=     0  mStk=     0
            .2345678.1.2345678.2.2345678.3.2345678.4.2345678.5.2345678.6.2345678.7.2345678.8.2345678.9.2345678.0
            ! Polygon Clipping Algorithm 
 KRDRD  --> kardi1=   1  KARDI2=  29 KARDX=  30  mTxtP=     0  mStk=     0
      *  60 * ! Sky Diffuse Modeling Algorithm
 KRDRD  <-3-  KARDI1=   1  KARDI2=  33  KARDX=   1  KRDNUM=  60 mTxtP =     0  mP=     0  mStk=     0
            .2345678.1.2345678.2.2345678.3.2345678.4.2345678.5.2345678.6.2345678.7.2345678.8.2345678.9.2345678.0
            ! Sky Diffuse Modeling Algorithm 
 KRDRD  --> kardi1=   1  KARDI2=  33 KARDX=  34  mTxtP=     0  mStk=     0
      *  61 * ShadowCalculation,
 KRDRD  <-3-  KARDI1=   1  KARDI2=  19  KARDX=   1  KRDNUM=  61 mTxtP =     0  mP=     0  mStk=     0
            .2345678.1.2345678.2.2345678.3.2345678.4.2345678.5.2345678.6.2345678.7.2345678.8.2345678.9.2345678.0
            ShadowCalculation, 
 KRDRD  --> kardi1=   1  KARDI2=  19 KARDX=  20  mTxtP=     0  mStk=     0
      *  62 *     AverageOverDaysInFrequency,  !- Calculation Method
 KRDRD  <-3-  KARDI1=   1  KARDI2=  55  KARDX=   1  KRDNUM=  62 mTxtP =     0  mP=     0  mStk=     0
            .2345678.1.2345678.2.2345678.3.2345678.4.2345678.5.2345678.6.2345678.7.2345678.8.2345678.9.2345678.0
                AverageOverDaysInFrequency,  !- Calculation Method 
 KRDRD  --> kardi1=   1  KARDI2=  55 KARDX=  56  mTxtP=     0  mStk=     0
      *  63 *     20,                      !- Calculation Frequency
 KRDRD  <-3-  KARDI1=   1  KARDI2=  54  KARDX=   1  KRDNUM=  63 mTxtP =     0  mP=     0  mStk=     0
            .2345678.1.2345678.2.2345678.3.2345678.4.2345678.5.2345678.6.2345678.7.2345678.8.2345678.9.2345678.0
                20,                      !- Calculation Frequency 
 KRDRD  --> kardi1=   1  KARDI2=  54 KARDX=  55  mTxtP=     0  mStk=     0
      *  64 *     15000,                   !- Maximum Figures in Shadow Overlap Calculations
 KRDRD  <-3-  KARDI1=   1  KARDI2=  79  KARDX=   1  KRDNUM=  64 mTxtP =     0  mP=     0  mStk=     0
            .2345678.1.2345678.2.2345678.3.2345678.4.2345678.5.2345678.6.2345678.7.2345678.8.2345678.9.2345678.0
                15000,                   !- Maximum Figures in Shadow Overlap Calculations 
 KRDRD  --> kardi1=   1  KARDI2=  79 KARDX=  80  mTxtP=     0  mStk=     0
      *  65 *     SutherlandHodgman,       !- Polygon Clipping Algorithm
 KRDRD  <-3-  KARDI1=   1  KARDI2=  59  KARDX=   1  KRDNUM=  65 mTxtP =     0  mP=     0  mStk=     0
            .2345678.1.2345678.2.2345678.3.2345678.4.2345678.5.2345678.6.2345678.7.2345678.8.2345678.9.2345678.0
                SutherlandHodgman,       !- Polygon Clipping Algorithm 
 KRDRD  --> kardi1=   1  KARDI2=  59 KARDX=  60  mTxtP=     0  mStk=     0
      *  66 *     SimpleSkyDiffuseModeling;!- Sky Diffuse Modeling Algorithm
 KRDRD  <-3-  KARDI1=   1  KARDI2=  63  KARDX=   1  KRDNUM=  66 mTxtP =     0  mP=     0  mStk=     0
            .2345678.1.2345678.2.2345678.3.2345678.4.2345678.5.2345678.6.2345678.7.2345678.8.2345678.9.2345678.0
                SimpleSkyDiffuseModeling;!- Sky Diffuse Modeling Algorithm 
 KRDRD  --> kardi1=   1  KARDI2=  63 KARDX=  64  mTxtP=     0  mStk=     0
      *  67 *
 KRDRD  <-3-  KARDI1=   1  KARDI2=   1  KARDX=   1  KRDNUM=  67 mTxtP =     0  mP=     0  mStk=     0
            .2345678.1.2345678.2.2345678.3.2345678.4.2345678.5.2345678.6.2345678.7.2345678.8.2345678.9.2345678.0
             
 KRDRD  --> kardi1=   1  KARDI2=   1 KARDX=   2  mTxtP=     0  mStk=     0
      *  68 *
 KRDRD  <-3-  KARDI1=   1  KARDI2=   1  KARDX=   1  KRDNUM=  68 mTxtP =     0  mP=     0  mStk=     0
            .2345678.1.2345678.2.2345678.3.2345678.4.2345678.5.2345678.6.2345678.7.2345678.8.2345678.9.2345678.0
             
 KRDRD  --> kardi1=   1  KARDI2=   1 KARDX=   2  mTxtP=     0  mStk=     0
      *  69 * !-   ===========  ALL OBJECTS IN CLASS: SURFACECONVECTIONALGORITHM:INSIDE ===========
 KRDRD  <-3-  KARDI1=   1  KARDI2=  86  KARDX=   1  KRDNUM=  69 mTxtP =     0  mP=     0  mStk=     0
            .2345678.1.2345678.2.2345678.3.2345678.4.2345678.5.2345678.6.2345678.7.2345678.8.2345678.9.2345678.0
            !-   ===========  ALL OBJECTS IN CLASS: SURFACECONVECTIONALGORITHM:INSIDE =========== 
 KRDRD  --> kardi1=   1  KARDI2=  86 KARDX=  87  mTxtP=     0  mStk=     0
      *  70 *
 KRDRD  <-3-  KARDI1=   1  KARDI2=   1  KARDX=   1  KRDNUM=  70 mTxtP =     0  mP=     0  mStk=     0
            .2345678.1.2345678.2.2345678.3.2345678.4.2345678.5.2345678.6.2345678.7.2345678.8.2345678.9.2345678.0
             
 KRDRD  --> kardi1=   1  KARDI2=   1 KARDX=   2  mTxtP=     0  mStk=     0
      *  71 * ! Algorithm
 KRDRD  <-3-  KARDI1=   1  KARDI2=  12  KARDX=   1  KRDNUM=  71 mTxtP =     0  mP=     0  mStk=     0
            .2345678.1.2345678.2.2345678.3.2345678.4.2345678.5.2345678.6.2345678.7.2345678.8.2345678.9.2345678.0
            ! Algorithm 
 KRDRD  --> kardi1=   1  KARDI2=  12 KARDX=  13  mTxtP=     0  mStk=     0
      *  72 * SurfaceConvectionAlgorithm:Inside,
 KRDRD  <-3-  KARDI1=   1  KARDI2=  35  KARDX=   1  KRDNUM=  72 mTxtP =     0  mP=     0  mStk=     0
            .2345678.1.2345678.2.2345678.3.2345678.4.2345678.5.2345678.6.2345678.7.2345678.8.2345678.9.2345678.0
            SurfaceConvectionAlgorithm:Inside, 
 KRDRD  --> kardi1=   1  KARDI2=  35 KARDX=  36  mTxtP=     0  mStk=     0
      *  73 *     TARP;                    !- Algorithm
 KRDRD  <-3-  KARDI1=   1  KARDI2=  42  KARDX=   1  KRDNUM=  73 mTxtP =     0  mP=     0  mStk=     0
            .2345678.1.2345678.2.2345678.3.2345678.4.2345678.5.2345678.6.2345678.7.2345678.8.2345678.9.2345678.0
                TARP;                    !- Algorithm 
 KRDRD  --> kardi1=   1  KARDI2=  42 KARDX=  43  mTxtP=     0  mStk=     0
      *  74 *
 KRDRD  <-3-  KARDI1=   1  KARDI2=   1  KARDX=   1  KRDNUM=  74 mTxtP =     0  mP=     0  mStk=     0
            .2345678.1.2345678.2.2345678.3.2345678.4.2345678.5.2345678.6.2345678.7.2345678.8.2345678.9.2345678.0
             
 KRDRD  --> kardi1=   1  KARDI2=   1 KARDX=   2  mTxtP=     0  mStk=     0
      *  75 *
 KRDRD  <-3-  KARDI1=   1  KARDI2=   1  KARDX=   1  KRDNUM=  75 mTxtP =     0  mP=     0  mStk=     0
            .2345678.1.2345678.2.2345678.3.2345678.4.2345678.5.2345678.6.2345678.7.2345678.8.2345678.9.2345678.0
             
 KRDRD  --> kardi1=   1  KARDI2=   1 KARDX=   2  mTxtP=     0  mStk=     0
      *  76 * !-   ===========  ALL OBJECTS IN CLASS: SURFACECONVECTIONALGORITHM:OUTSIDE ===========
 KRDRD  <-3-  KARDI1=   1  KARDI2=  87  KARDX=   1  KRDNUM=  76 mTxtP =     0  mP=     0  mStk=     0
            .2345678.1.2345678.2.2345678.3.2345678.4.2345678.5.2345678.6.2345678.7.2345678.8.2345678.9.2345678.0
            !-   ===========  ALL OBJECTS IN CLASS: SURFACECONVECTIONALGORITHM:OUTSIDE =========== 
 KRDRD  --> kardi1=   1  KARDI2=  87 KARDX=  88  mTxtP=     0  mStk=     0
      *  77 *
 KRDRD  <-3-  KARDI1=   1  KARDI2=   1  KARDX=   1  KRDNUM=  77 mTxtP =     0  mP=     0  mStk=     0
            .2345678.1.2345678.2.2345678.3.2345678.4.2345678.5.2345678.6.2345678.7.2345678.8.2345678.9.2345678.0
             